/*--------------------------------*- C++ -*----------------------------------*\
| =========                 |                                                 |
| \\      /  F ield         | OpenFOAM: The Open Source CFD Toolbox           |
|  \\    /   O peration     | Version:  v2506                                 |
|   \\  /    A nd           | Website:  www.openfoam.com 	              |
|    \\/     M anipulation  |                                                 |
\*---------------------------------------------------------------------------*/
FoamFile
{
    version     2.0;
    format      ascii;
    class       dictionary;
    object      fvSchemes;
}
// * * * * * * * * * * * * * * * * * * * * * * * * * * * * * * * * * * * * * //

ddtSchemes
{
    default         backward;
}

gradSchemes
{
    default         Gauss linear;
    //default         leastSquares;
    //grad(U)         faceMDLimited leastSquares 1;
}

divSchemes
{
    default         Gauss linear;
    //div(phi,U)      Gauss upwind;;
    //div(phi,U) Gauss linearUpwind grad(U);
    //div(phi,U) Gauss linearUpwind cellLimited leastSquares 1;
    div((nuEff*dev(T(grad(U))))) Gauss linear;
    div((nuEff*dev2(T(grad(U))))) Gauss linear;

    div(phi,omega) Gauss upwind;
    div(phi,k) Gauss upwind;
}

laplacianSchemes
{
    default         Gauss linear corrected;
}

interpolationSchemes
{
    default         linear;
    //interpolate(U) skewCorrected linear;
}

snGradSchemes
{
    default         corrected;
}


fluxRequired
{
    default    no;
    p;
}

// ************************************************************************* //
