/*--------------------------------*- C++ -*----------------------------------*\
| =========                 |                                                 |
| \\      /  F ield         | OpenFOAM: The Open Source CFD Toolbox           |
|  \\    /   O peration     | Version:  v2506                                 |
|   \\  /    A nd           | Website:  www.openfoam.com 	              |
|    \\/     M anipulation  |                                                 |
\*---------------------------------------------------------------------------*/
FoamFile
{
    version     2.0;
    format      ascii;
    class       dictionary;
    location    "constant";
    object      variablesDict;
}
// * * * * * * * * * * * * * * * * * * * * * * * * * * * * * * * * * * * * * //

Umax		1.0e-4;	// Inlet Velocity Peak
Resistor	2;	// Peripheral Resistance value 
Capacitor	8e-2;	// Total Arterial Compliance value
Impedance	0.9;	// Characteristic Impedance value

// ************************************************************************* //
